Hello world!
commit test
1234567
New line.
Add Line
