Hello world!
commit test
untesting line
New line.
Add Line
