Hello world!
commit test
testing line
untesting line
New line.
Add Line
