Hello world!
commit test
testing line
New line.
Add Line
